/*---------------------------------------------------------------------------*\
  =========                 |
  \\      /  F ield         | OpenFOAM: The Open Source CFD Toolbox
   \\    /   O peration     | Website:  https://openfoam.org
    \\  /    A nd           | Version:  7
     \\/     M anipulation  |
\*---------------------------------------------------------------------------*/
Build  : 7-49b2b3b8b082
Exec   : reconstructPar
Date   : May 15 2022
Time   : 00:15:28
Host   : "c435-052.stampede2.tacc.utexas.edu"
PID    : 206351
I/O    : uncollated
Case   : /work2/07673/harrijin/stampede2/final-project/anal_sims/n8long2
nProcs : 1
sigFpe : Enabling floating point exception trapping (FOAM_SIGFPE).
fileModificationChecking : Monitoring run-time modified files using timeStampMaster (fileModificationSkew 10)
allowSystemOperations : Allowing user-supplied system call operations

// * * * * * * * * * * * * * * * * * * * * * * * * * * * * * * * * * * * * * //
Create time



Reconstructing fields for mesh region0

Time = 0.1

Reconstructing FV fields

    Reconstructing volScalarFields

        T
        p
        rho

    Reconstructing volVectorFields

        U

Reconstructing point fields

No point fields

No lagrangian fields

Time = 0.2

Reconstructing FV fields

    Reconstructing volScalarFields

        T
        p
        rho

    Reconstructing volVectorFields

        U

Reconstructing point fields

No point fields

No lagrangian fields

Time = 0.3

Reconstructing FV fields

    Reconstructing volScalarFields

        T
        p
        rho

    Reconstructing volVectorFields

        U

Reconstructing point fields

No point fields

No lagrangian fields

Time = 0.4

Reconstructing FV fields

    Reconstructing volScalarFields

        T
        p
        rho

    Reconstructing volVectorFields

        U

Reconstructing point fields

No point fields

No lagrangian fields

Time = 0.5

Reconstructing FV fields

    Reconstructing volScalarFields

        T
        p
        rho

    Reconstructing volVectorFields

        U

Reconstructing point fields

No point fields

No lagrangian fields

Time = 0.6

Reconstructing FV fields

    Reconstructing volScalarFields

        T
        p
        rho

    Reconstructing volVectorFields

        U

Reconstructing point fields

No point fields

No lagrangian fields

Time = 0.7

Reconstructing FV fields

    Reconstructing volScalarFields

        T
        p
        rho

    Reconstructing volVectorFields

        U

Reconstructing point fields

No point fields

No lagrangian fields

Time = 0.8

Reconstructing FV fields

    Reconstructing volScalarFields

        T
        p
        rho

    Reconstructing volVectorFields

        U

Reconstructing point fields

No point fields

No lagrangian fields

Time = 0.9

Reconstructing FV fields

    Reconstructing volScalarFields

        T
        p
        rho

    Reconstructing volVectorFields

        U

Reconstructing point fields

No point fields

No lagrangian fields

Time = 1

Reconstructing FV fields

    Reconstructing volScalarFields

        T
        p
        rho

    Reconstructing volVectorFields

        U

Reconstructing point fields

No point fields

No lagrangian fields

Time = 1.1

Reconstructing FV fields

    Reconstructing volScalarFields

        T
        p
        rho

    Reconstructing volVectorFields

        U

Reconstructing point fields

No point fields

No lagrangian fields

Time = 1.2

Reconstructing FV fields

    Reconstructing volScalarFields

        T
        p
        rho

    Reconstructing volVectorFields

        U

Reconstructing point fields

No point fields

No lagrangian fields

Time = 1.3

Reconstructing FV fields

    Reconstructing volScalarFields

        T
        p
        rho

    Reconstructing volVectorFields

        U

Reconstructing point fields

No point fields

No lagrangian fields

Time = 1.4

Reconstructing FV fields

    Reconstructing volScalarFields

        T
        p
        rho

    Reconstructing volVectorFields

        U

Reconstructing point fields

No point fields

No lagrangian fields

Time = 1.5

Reconstructing FV fields

    Reconstructing volScalarFields

        T
        p
        rho

    Reconstructing volVectorFields

        U

Reconstructing point fields

No point fields

No lagrangian fields

Time = 1.6

Reconstructing FV fields

    Reconstructing volScalarFields

        T
        p
        rho

    Reconstructing volVectorFields

        U

Reconstructing point fields

No point fields

No lagrangian fields

Time = 1.7

Reconstructing FV fields

    Reconstructing volScalarFields

        T
        p
        rho

    Reconstructing volVectorFields

        U

Reconstructing point fields

No point fields

No lagrangian fields

Time = 1.8

Reconstructing FV fields

    Reconstructing volScalarFields

        T
        p
        rho

    Reconstructing volVectorFields

        U

Reconstructing point fields

No point fields

No lagrangian fields

Time = 1.9

Reconstructing FV fields

    Reconstructing volScalarFields

        T
        p
        rho

    Reconstructing volVectorFields

        U

Reconstructing point fields

No point fields

No lagrangian fields

Time = 2

Reconstructing FV fields

    Reconstructing volScalarFields

        T
        p
        rho

    Reconstructing volVectorFields

        U

Reconstructing point fields

No point fields

No lagrangian fields

Time = 2.1

Reconstructing FV fields

    Reconstructing volScalarFields

        T
        p
        rho

    Reconstructing volVectorFields

        U

Reconstructing point fields

No point fields

No lagrangian fields

Time = 2.2

Reconstructing FV fields

    Reconstructing volScalarFields

        T
        p
        rho

    Reconstructing volVectorFields

        U

Reconstructing point fields

No point fields

No lagrangian fields

Time = 2.3

Reconstructing FV fields

    Reconstructing volScalarFields

        T
        p
        rho

    Reconstructing volVectorFields

        U

Reconstructing point fields

No point fields

No lagrangian fields

Time = 2.4

Reconstructing FV fields

    Reconstructing volScalarFields

        T
        p
        rho

    Reconstructing volVectorFields

        U

Reconstructing point fields

No point fields

No lagrangian fields

Time = 2.5

Reconstructing FV fields

    Reconstructing volScalarFields

        T
        p
        rho

    Reconstructing volVectorFields

        U

Reconstructing point fields

No point fields

No lagrangian fields

Time = 2.6

Reconstructing FV fields

    Reconstructing volScalarFields

        T
        p
        rho

    Reconstructing volVectorFields

        U

Reconstructing point fields

No point fields

No lagrangian fields

Time = 2.7

Reconstructing FV fields

    Reconstructing volScalarFields

        T
        p
        rho

    Reconstructing volVectorFields

        U
